! Z* coordinate regridding + initialization
USE_REGRIDDING = False
REGRIDDING_COORDINATE_MODE = "Z*"

